/*--------------------------------*- C++ -*----------------------------------*\
  =========                 |
  \\      /  F ield         | OpenFOAM: The Open Source CFD Toolbox
   \\    /   O peration     | Website:  https://openfoam.org
    \\  /    A nd           | Version:  6
     \\/     M anipulation  |
\*---------------------------------------------------------------------------*/
FoamFile
{
    version     2.0;
    format      ascii;
    class       volScalarField;
    object      alpha.water;
}
// * * * * * * * * * * * * * * * * * * * * * * * * * * * * * * * * * * * * * //

dimensions      [0 0 0 0 0 0 0];

internalField   uniform 1;

boundaryField
{
    air_in
    {
        type            fixedValue;
        value           uniform 0;
    }

    water_in
    {
        type            fixedValue;
        value           uniform 1;
    }

    out
    {
        type            inletOutlet;
        inletValue      uniform 0;
        value           uniform 0;
    }

    wall
    {
        type           constantAlphaContactAngle;
        theta0         0;
        limit          gradient;
        value          uniform 0;
    }

    defaultFaces
    {
        type            empty;
    }
}


// ************************************************************************* //
